data_image0
_cell_length_a       4.37204
_cell_length_b       4.78743
_cell_length_c       27.4382
_cell_angle_alpha    90
_cell_angle_beta     90
_cell_angle_gamma    90

_symmetry_space_group_name_H-M    "P 1"
_symmetry_int_tables_number       1

loop_
  _symmetry_equiv_pos_as_xyz
  'x, y, z'

loop_
  _atom_site_label
  _atom_site_occupancy
  _atom_site_fract_x
  _atom_site_fract_y
  _atom_site_fract_z
  _atom_site_thermal_displace_type
  _atom_site_B_iso_or_equiv
  _atom_site_type_symbol
  Ir1      1.0000 0.12500  0.58192  0.52539  Biso   1.000  Ir
  O1       1.0000 0.87426  0.41835  0.57587  Biso   1.000  O
  O2       1.0000 0.37561  0.74563  0.57593  Biso   1.000  O
  Ir2      1.0000 0.62506  0.58222  0.62598  Biso   1.000  Ir
  O3       1.0000 0.36732  0.25604  0.62718  Biso   1.000  O
  O4       1.0000 0.88227  0.90898  0.62725  Biso   1.000  O
  O5       1.0000 0.87089  0.41676  0.67693  Biso   1.000  O
  O6       1.0000 0.37868  0.74785  0.67685  Biso   1.000  O
  Ir3      1.0000 0.12495  0.08220  0.68076  Biso   1.000  Ir
  O7       1.0000 0.38101  0.24265  0.72277  Biso   1.000  O
  O8       1.0000 0.86917  0.92097  0.72276  Biso   1.000  O
  H1       1.0000 0.42286  0.06052  0.73747  Biso   1.000  H
